[Format]      =  4.0
[Frequency]   =  0
[Precision]   =  1e-008
[MinAngle]    =  30
[DoSmartMesh] =  1
[Depth]       =  10
[LengthUnits] =  millimeters
[ProblemType] =  planar
[Coordinates] =  cartesian
[ACSolver]    =  0
[PrevType]    =  0
[PrevSoln]    =  ""
[Comment]     =  "Add comments here."
[PointProps]   = 0
[BdryProps]   = 0
[BlockProps]  = 4
  <BeginBlock>
    <BlockName> = "Air"
    <Mu_x> = 1
    <Mu_y> = 1
    <H_c> = 0
    <H_cAngle> = 0
    <J_re> = 0
    <J_im> = 0
    <Sigma> = 0
    <d_lam> = 0
    <Phi_h> = 0
    <Phi_hx> = 0
    <Phi_hy> = 0
    <LamType> = 0
    <LamFill> = 1
    <NStrands> = 0
    <WireD> = 0
    <BHPoints> = 0
  <EndBlock>
  <BeginBlock>
    <BlockName> = "N35"
    <Mu_x> = 1.05
    <Mu_y> = 1.05
    <H_c> = 905659
    <H_cAngle> = 0
    <J_re> = 0
    <J_im> = 0
    <Sigma> = 0.66700000000000004
    <d_lam> = 0
    <Phi_h> = 0
    <Phi_hx> = 0
    <Phi_hy> = 0
    <LamType> = 0
    <LamFill> = 1
    <NStrands> = 0
    <WireD> = 0
    <BHPoints> = 0
  <EndBlock>
  <BeginBlock>
    <BlockName> = "20 AWG"
    <Mu_x> = 1
    <Mu_y> = 1
    <H_c> = 0
    <H_cAngle> = 0
    <J_re> = 0
    <J_im> = 0
    <Sigma> = 58
    <d_lam> = 0
    <Phi_h> = 0
    <Phi_hx> = 0
    <Phi_hy> = 0
    <LamType> = 3
    <LamFill> = 1
    <NStrands> = 1
    <WireD> = 0.812049969500513
    <BHPoints> = 0
  <EndBlock>
  <BeginBlock>
    <BlockName> = "US Steel Type 2-S 0.024 inch thickness"
    <Mu_x> = 7400
    <Mu_y> = 7400
    <H_c> = 0
    <H_cAngle> = 0
    <J_re> = 0
    <J_im> = 0
    <Sigma> = 6.25
    <d_lam> = 0.60960000000000003
    <Phi_h> = 0
    <Phi_hx> = 0
    <Phi_hy> = 0
    <LamType> = 0
    <LamFill> = 0.97999999999999998
    <NStrands> = 0
    <WireD> = 0
    <BHPoints> = 66
      0	0
      0.0046779999999999999	9.1307220000000004
      0.0064009999999999996	10.474786
      0.008123	12.016997999999999
      0.0098449999999999996	13.786006
      0.014524	15.816824
      0.019202	18.147649000000001
      0.023879999999999998	20.822248999999999
      0.031514	23.893940000000001
      0.048016000000000003	27.429568
      0.067473000000000005	31.492000000000001
      0.10170999999999999	36.179115000000003
      0.15959000000000001	41.607095999999999
      0.26477000000000001	47.948627000000002
      0.39655000000000001	55.320686000000002
      0.53718999999999995	63.850599000000003
      0.67193000000000003	73.677623999999994
      0.79779999999999995	84.980812
      0.90297000000000005	97.936029000000005
      1.0052000000000001	112.84885300000001
      1.0955999999999999	129.96597299999999
      1.1800999999999999	149.637531
      1.2557	172.22162599999999
      1.3165	198.08431300000001
      1.3654999999999999	227.718974
      1.3997999999999999	261.61103100000003
      1.4252	300.436893
      1.4446000000000001	344.928674
      1.4611000000000001	395.961724
      1.4717	454.42731400000002
      1.4852000000000001	521.59868100000006
      1.4987999999999999	598.69336299999998
      1.5094000000000001	687.10396600000001
      1.52	788.557321
      1.5276000000000001	904.87575200000003
      1.5382	1038.486375
      1.5488	1191.832218
      1.5593999999999999	1367.8576479999999
      1.5729	1569.9844969999999
      1.5834999999999999	1801.7937549999999
      1.5941000000000001	2067.9009150000002
      1.6047	2373.239783
      1.6182000000000001	2724.0174019999999
      1.6288	3126.281665
      1.6424000000000001	3588.30863
      1.6589	4119.2497100000001
      1.6754	4728.7337829999997
      1.7083999999999999	6231.5548699999999
      1.7307999999999999	7155.3700669999998
      1.7532000000000001	8216.3768749999999
      1.7756000000000001	9433.9126250000008
      1.8009999999999999	10834.476624999999
      1.8292999999999999	12443.533675000001
      1.8575999999999999	14292.119000000001
      1.8889	16417.634024999999
      1.9232	18861.459050000001
      1.9574	21668.953249999999
      1.9916	24894.229325
      2.0287999999999999	28603.336599999999
      2.0659999999999998	32864.711725000001
      2.0973000000000002	37751.565999999999
      2.1255999999999999	43359.392424999998
      2.1480000000000001	49787.662875000002
      2.1675	57161.314025
      2.181	65610.852975000002
      2.1945999999999999	75308.167125000007
  <EndBlock>
[CircuitProps]  = 3
  <BeginCircuit>
    <CircuitName> = "A"
    <TotalAmps_re> = 9.8480775301220831
    <TotalAmps_im> = 0
    <CircuitType> = 1
  <EndCircuit>
  <BeginCircuit>
    <CircuitName> = "B"
    <TotalAmps_re> = -3.4202014332566777
    <TotalAmps_im> = -0
    <CircuitType> = 1
  <EndCircuit>
  <BeginCircuit>
    <CircuitName> = "C"
    <TotalAmps_re> = -6.4278760968653899
    <TotalAmps_im> = -0
    <CircuitType> = 1
  <EndCircuit>
[NumPoints] = 236
-4.0000000000000018	-29.732137494637009	0	0
-4.0000000000000027	-49.839743177508453	0	0
-12.096094779983384	-48.514786313799831	0	0
-14.515313735980063	-58.217743576559791	0	0
14.515313735980046	-58.217743576559791	0	0
12.096094779983376	-48.514786313799831	0	0
3.9999999999999889	-49.839743177508453	0	0
3.9999999999999982	-29.732137494637009	0	0
11.401967132180749	-27.748786379167459	0	0
21.455769973616455	-45.162483709814467	0	0
13.781867790849986	-48.063084796915938	0	0
16.538241349019945	-57.675701756299141	0	0
41.679502227539821	-43.160388020319047	0	0
34.732918522949859	-35.966990016932563	0	0
28.383973203891955	-41.162483709814509	0	0
18.330170362456261	-23.74878637916747	0	0
23.748786379167459	-18.330170362456268	0	0
41.16248370981446	-28.383973203891994	0	0
35.966990016932563	-34.732918522949859	0	0
43.160388020319061	-41.679502227539842	0	0
57.675701756299119	-16.538241349019984	0	0
48.063084796915938	-13.781867790849963	0	0
45.162483709814467	-21.455769973616484	0	0
27.748786379167459	-11.401967132180761	0	0
29.732137494637009	-4.0000000000000275	0	0
49.839743177508453	-4.000000000000024	0	0
48.514786313799831	-12.096094779983373	0	0
58.217743576559791	-14.515313735980074	0	0
58.217743576559791	14.515313735980037	0	0
48.514786313799831	12.096094779983376	0	0
49.839743177508453	3.9999999999999969	0	0
29.732137494637009	3.9999999999999853	0	0
27.74878637916747	11.401967132180728	0	0
45.162483709814502	21.455769973616437	0	0
48.063084796915952	13.781867790849937	0	0
57.675701756299127	16.538241349019927	0	0
43.160388020319068	41.679502227539842	0	0
35.966990016932563	34.732918522949852	0	0
41.162483709814509	28.383973203891955	0	0
23.74878637916747	18.330170362456251	0	0
18.33017036245629	23.748786379167441	0	0
28.383973203892012	41.16248370981446	0	0
34.732918522949873	35.966990016932563	0	0
41.679502227539857	43.160388020319047	0	0
16.538241349019984	57.675701756299119	0	0
13.781867790849974	48.063084796915938	0	0
21.455769973616523	45.162483709814438	0	0
11.401967132180761	27.748786379167459	0	0
4.0000000000000302	29.732137494637009	0	0
4.0000000000000417	49.839743177508439	0	0
12.096094779983373	48.514786313799831	0	0
14.515313735980074	58.217743576559791	0	0
-14.515313735980046	58.217743576559791	0	0
-12.096094779983376	48.514786313799831	0	0
-3.9999999999999729	49.839743177508453	0	0
-3.9999999999999774	29.732137494637019	0	0
-11.401967132180758	27.748786379167459	0	0
-21.455769973616476	45.16248370981446	0	0
-13.781867790849937	48.063084796915952	0	0
-16.538241349019927	57.675701756299127	0	0
-41.679502227539828	43.16038802031909	0	0
-34.732918522949852	35.966990016932563	0	0
-28.383973203892015	41.162483709814467	0	0
-18.330170362456268	23.748786379167449	0	0
-23.74878637916747	18.330170362456251	0	0
-41.162483709814488	28.383973203891962	0	0
-35.966990016932563	34.732918522949873	0	0
-43.16038802031904	41.679502227539857	0	0
-57.675701756299127	16.538241349019984	0	0
-48.063084796915938	13.781867790849983	0	0
-45.162483709814502	21.455769973616455	0	0
-27.74878637916747	11.401967132180742	0	0
-29.732137494637009	3.9999999999999916	0	0
-49.839743177508453	3.9999999999999902	0	0
-48.514786313799831	12.096094779983394	0	0
-58.217743576559791	14.515313735980074	0	0
-58.217743576559791	-14.515313735980046	0	0
-48.514786313799831	-12.096094779983376	0	0
-49.839743177508453	-4.0000000000000133	0	0
-29.732137494637009	-4.0000000000000107	0	0
-27.748786379167459	-11.401967132180749	0	0
-45.162483709814467	-21.455769973616476	0	0
-48.063084796915952	-13.781867790849907	0	0
-57.675701756299148	-16.538241349019895	0	0
-43.16038802031909	-41.679502227539793	0	0
-35.966990016932577	-34.732918522949838	0	0
-41.162483709814467	-28.383973203891987	0	0
-23.748786379167459	-18.330170362456261	0	0
-18.330170362456261	-23.748786379167459	0	0
-28.383973203891973	-41.162483709814467	0	0
-34.732918522949888	-35.966990016932542	0	0
-41.679502227539857	-43.16038802031904	0	0
-16.538241349019984	-57.675701756299119	0	0
-13.781867790849983	-48.063084796915938	0	0
-21.455769973616473	-45.162483709814467	0	0
-11.401967132180753	-27.748786379167459	0	0
64.524160047460782	14.76085262340164	0	1
61.525987566403522	14.656154133293933	0	1
62.398474983966153	-10.32861654218358	0	1
65.396647465023293	-10.223918052076172	0	1
60.8773535094629	-25.98456906866064	0	1
58.390240791797666	-24.306990358248616	0	1
44.410418205029018	-45.032929672124801	0	1
46.897530922693896	-46.710508382537071	0	1
33.977467075992934	-56.804768559513796	0	1
32.951406646015705	-53.985690697156187	0	1
9.4590911263679356	-62.536194280298048	0	1
10.485151556344697	-65.355272142655551	0	1
-5.9006569288758266	-65.927477183703985	0	1
-5.0737448614250802	-63.043692095889114	0	1
-29.105287259883156	-56.15275820046417	0	1
-29.932199327334246	-59.036543288278935	0	1
-43.524930542866535	-49.86813031625254	0	1
-41.160898282046574	-48.021145890275484	0	1
-56.552435165188193	-28.320877050107391	0	1
-58.91646742600831	-30.167861476084123	0	1
-64.524160047460711	-14.760852623401641	0	1
-61.525987566403501	-14.656154133293905	0	1
-62.398474983966089	10.328616542183589	0	1
-65.396647465023293	10.223918052076172	0	1
-60.877353509462928	25.984569068660711	0	1
-58.39024079179768	24.306990358248598	0	1
-44.410418205029018	45.032929672124801	0	1
-46.897530922693939	46.710508382537064	0	1
-33.977467075992905	56.804768559513768	0	1
-32.951406646015741	53.985690697156201	0	1
-9.4590911263679338	62.536194280298055	0	1
-10.485151556344761	65.35527214265565	0	1
5.9006569288758275	65.927477183704042	0	1
5.0737448614250802	63.043692095889114	0	1
29.105287259883177	56.152758200464163	0	1
29.932199327334246	59.036543288278935	0	1
43.524930542866628	49.868130316252568	0	1
41.160898282046574	48.021145890275484	0	1
56.552435165188207	28.320877050107359	0	1
58.916467426008282	30.167861476084113	0	1
25.651510749425729	-70.476946558944135	0	1
-25.651510749425729	70.476946558944135	0	1
4.5	48	0	0
4.5	31	0	0
7.5	31	0	0
7.5	48	0	0
-4.5	48	0	0
-7.5	48	0	0
-7.5	31	0	0
-4.5	31	0	0
-20.102885682970022	43.819219381653056	0	0
-17.504809471616706	45.319219381653056	0	0
-9.0048094716167082	30.596787517317601	0	0
-11.602885682970024	29.096787517317601	0	0
-27.89711431702997	39.319219381653056	0	0
-30.495190528383286	37.819219381653056	0	0
-21.99519052838329	23.096787517317601	0	0
-19.397114317029974	24.596787517317601	0	0
-39.319219381653056	27.897114317029981	0	0
-37.819219381653056	30.495190528383297	0	0
-23.096787517317598	21.995190528383294	0	0
-24.596787517317598	19.397114317029978	0	0
-43.819219381653056	20.102885682970033	0	0
-45.319219381653056	17.504809471616717	0	0
-30.596787517317598	9.0048094716167135	0	0
-29.096787517317598	11.60288568297003	0	0
-48	4.5000000000000071	0	0
-48	7.5000000000000089	0	0
-31	7.5000000000000071	0	0
-31	4.5000000000000071	0	0
-48	-4.4999999999999929	0	0
-48	-7.4999999999999929	0	0
-31	-7.4999999999999947	0	0
-31	-4.4999999999999929	0	0
-43.819219381653056	-20.102885682970015	0	0
-45.319219381653056	-17.504809471616699	0	0
-30.596787517317601	-9.0048094716167029	0	0
-29.096787517317601	-11.602885682970019	0	0
-39.319219381653056	-27.897114317029963	0	0
-37.819219381653056	-30.495190528383279	0	0
-23.096787517317601	-21.995190528383283	0	0
-24.596787517317601	-19.397114317029967	0	0
-27.897114317029988	-39.319219381653042	0	0
-30.495190528383304	-37.819219381653042	0	0
-21.995190528383297	-23.09678751731759	0	0
-19.397114317029981	-24.596787517317594	0	0
-20.102885682970033	-43.819219381653042	0	0
-17.504809471616717	-45.319219381653049	0	0
-9.0048094716167189	-30.596787517317594	0	0
-11.602885682970033	-29.096787517317594	0	0
-4.5000000000000142	-48	0	0
-7.5000000000000142	-48	0	0
-7.5000000000000107	-30.999999999999996	0	0
-4.5000000000000107	-31	0	0
4.4999999999999822	-48.000000000000007	0	0
7.4999999999999822	-48.000000000000007	0	0
7.4999999999999893	-31	0	0
4.4999999999999893	-31	0	0
20.102885682970008	-43.819219381653056	0	0
17.504809471616692	-45.319219381653056	0	0
9.0048094716166958	-30.596787517317601	0	0
11.602885682970012	-29.096787517317605	0	0
27.897114317029956	-39.319219381653063	0	0
30.495190528383272	-37.819219381653063	0	0
21.995190528383279	-23.096787517317605	0	0
19.39711431702996	-24.596787517317605	0	0
27.89711431702997	39.319219381653056	0	0
30.495190528383286	37.819219381653056	0	0
21.99519052838329	23.096787517317601	0	0
19.397114317029974	24.596787517317601	0	0
20.102885682970022	43.819219381653056	0	0
17.504809471616706	45.319219381653056	0	0
9.0048094716167082	30.596787517317601	0	0
11.602885682970024	29.096787517317601	0	0
43.819219381653056	20.102885682970033	0	0
45.319219381653056	17.504809471616717	0	0
30.596787517317598	9.0048094716167135	0	0
29.096787517317598	11.60288568297003	0	0
39.319219381653056	27.897114317029981	0	0
37.819219381653056	30.495190528383297	0	0
23.096787517317598	21.995190528383294	0	0
24.596787517317598	19.397114317029978	0	0
48	-4.4999999999999973	0	0
48	-7.4999999999999973	0	0
31	-7.4999999999999982	0	0
31	-4.4999999999999982	0	0
48	4.5000000000000027	0	0
48	7.5000000000000027	0	0
31	7.5000000000000018	0	0
31	4.5000000000000018	0	0
39.319219381653056	-27.897114317029963	0	0
37.819219381653056	-30.495190528383279	0	0
23.096787517317601	-21.995190528383283	0	0
24.596787517317601	-19.397114317029967	0	0
43.819219381653056	-20.102885682970015	0	0
45.319219381653056	-17.504809471616699	0	0
30.596787517317601	-9.0048094716167029	0	0
29.096787517317601	-11.602885682970019	0	0
0	85	0	0
0	-85	0	0
[NumSegments] = 184
0	1	-1	0	0	0
2	3	-1	0	0	0
4	5	-1	0	0	0
6	7	-1	0	0	0
8	9	-1	0	0	0
10	11	-1	0	0	0
12	13	-1	0	0	0
14	15	-1	0	0	0
16	17	-1	0	0	0
18	19	-1	0	0	0
20	21	-1	0	0	0
22	23	-1	0	0	0
24	25	-1	0	0	0
26	27	-1	0	0	0
28	29	-1	0	0	0
30	31	-1	0	0	0
32	33	-1	0	0	0
34	35	-1	0	0	0
36	37	-1	0	0	0
38	39	-1	0	0	0
40	41	-1	0	0	0
42	43	-1	0	0	0
44	45	-1	0	0	0
46	47	-1	0	0	0
48	49	-1	0	0	0
50	51	-1	0	0	0
52	53	-1	0	0	0
54	55	-1	0	0	0
56	57	-1	0	0	0
58	59	-1	0	0	0
60	61	-1	0	0	0
62	63	-1	0	0	0
64	65	-1	0	0	0
66	67	-1	0	0	0
68	69	-1	0	0	0
70	71	-1	0	0	0
72	73	-1	0	0	0
74	75	-1	0	0	0
76	77	-1	0	0	0
78	79	-1	0	0	0
80	81	-1	0	0	0
82	83	-1	0	0	0
84	85	-1	0	0	0
86	87	-1	0	0	0
88	89	-1	0	0	0
90	91	-1	0	0	0
92	93	-1	0	0	0
94	95	-1	0	0	0
96	97	-1	0	0	1
97	98	-1	0	0	1
98	99	-1	0	0	1
100	101	-1	0	0	1
101	102	-1	0	0	1
102	103	-1	0	0	1
104	105	-1	0	0	1
105	106	-1	0	0	1
106	107	-1	0	0	1
108	109	-1	0	0	1
109	110	-1	0	0	1
110	111	-1	0	0	1
112	113	-1	0	0	1
113	114	-1	0	0	1
114	115	-1	0	0	1
116	117	-1	0	0	1
117	118	-1	0	0	1
118	119	-1	0	0	1
120	121	-1	0	0	1
121	122	-1	0	0	1
122	123	-1	0	0	1
124	125	-1	0	0	1
125	126	-1	0	0	1
126	127	-1	0	0	1
128	129	-1	0	0	1
129	130	-1	0	0	1
130	131	-1	0	0	1
132	133	-1	0	0	1
133	134	-1	0	0	1
134	135	-1	0	0	1
96	99	-1	0	0	1
100	103	-1	0	0	1
104	107	-1	0	0	1
108	111	-1	0	0	1
112	115	-1	0	0	1
116	119	-1	0	0	1
120	123	-1	0	0	1
124	127	-1	0	0	1
128	131	-1	0	0	1
132	135	-1	0	0	1
138	141	-1	0	0	0
140	139	-1	0	0	0
138	139	-1	0	0	0
141	140	-1	0	0	0
142	143	-1	0	0	0
144	145	-1	0	0	0
142	145	-1	0	0	0
143	144	-1	0	0	0
146	147	-1	0	0	0
148	149	-1	0	0	0
146	149	-1	0	0	0
147	148	-1	0	0	0
150	151	-1	0	0	0
152	153	-1	0	0	0
150	153	-1	0	0	0
151	152	-1	0	0	0
154	155	-1	0	0	0
156	157	-1	0	0	0
154	157	-1	0	0	0
155	156	-1	0	0	0
158	159	-1	0	0	0
160	161	-1	0	0	0
158	161	-1	0	0	0
159	160	-1	0	0	0
162	163	-1	0	0	0
164	165	-1	0	0	0
162	165	-1	0	0	0
163	164	-1	0	0	0
166	167	-1	0	0	0
168	169	-1	0	0	0
166	169	-1	0	0	0
167	168	-1	0	0	0
170	171	-1	0	0	0
172	173	-1	0	0	0
170	173	-1	0	0	0
171	172	-1	0	0	0
174	175	-1	0	0	0
176	177	-1	0	0	0
174	177	-1	0	0	0
175	176	-1	0	0	0
178	179	-1	0	0	0
180	181	-1	0	0	0
178	181	-1	0	0	0
179	180	-1	0	0	0
182	183	-1	0	0	0
184	185	-1	0	0	0
182	185	-1	0	0	0
183	184	-1	0	0	0
186	187	-1	0	0	0
188	189	-1	0	0	0
186	189	-1	0	0	0
187	188	-1	0	0	0
190	191	-1	0	0	0
192	193	-1	0	0	0
190	193	-1	0	0	0
191	192	-1	0	0	0
194	195	-1	0	0	0
196	197	-1	0	0	0
194	197	-1	0	0	0
195	196	-1	0	0	0
198	199	-1	0	0	0
200	201	-1	0	0	0
198	201	-1	0	0	0
199	200	-1	0	0	0
202	203	-1	0	0	0
204	205	-1	0	0	0
202	205	-1	0	0	0
203	204	-1	0	0	0
206	207	-1	0	0	0
208	209	-1	0	0	0
206	209	-1	0	0	0
207	208	-1	0	0	0
210	211	-1	0	0	0
212	213	-1	0	0	0
210	213	-1	0	0	0
211	212	-1	0	0	0
214	215	-1	0	0	0
216	217	-1	0	0	0
214	217	-1	0	0	0
215	216	-1	0	0	0
218	219	-1	0	0	0
220	221	-1	0	0	0
218	221	-1	0	0	0
219	220	-1	0	0	0
222	223	-1	0	0	0
224	225	-1	0	0	0
222	225	-1	0	0	0
223	224	-1	0	0	0
226	227	-1	0	0	0
228	229	-1	0	0	0
226	229	-1	0	0	0
227	228	-1	0	0	0
230	231	-1	0	0	0
232	233	-1	0	0	0
230	233	-1	0	0	0
231	232	-1	0	0	0
[NumArcSegments] = 62
2	1	9.4114342642141775	5	0	0	0	5
3	4	27.999999999999982	5	0	0	0	5
6	5	9.4114342642141775	5	0	0	0	5
7	8	14.675488678467865	5	0	0	0	5
10	9	9.4114342642142219	5	0	0	0	5
11	12	28.000000000000021	5	0	0	0	5
14	13	9.4114342642141775	5	0	0	0	5
15	16	14.675488678467865	5	0	0	0	5
18	17	9.4114342642142219	5	0	0	0	5
19	20	27.999999999999982	5	0	0	0	5
22	21	9.4114342642141775	5	0	0	0	5
23	24	14.675488678467909	5	0	0	0	5
26	25	9.4114342642141313	5	0	0	0	5
27	28	27.999999999999961	5	0	0	0	5
30	29	9.4114342642141313	5	0	0	0	5
31	32	14.675488678467865	5	0	0	0	5
34	33	9.4114342642141775	5	0	0	0	5
35	36	28.000000000000021	5	0	0	0	5
38	37	9.411434264214245	5	0	0	0	5
39	40	14.675488678467865	5	0	0	0	5
42	41	9.4114342642141775	5	0	0	0	5
43	44	27.999999999999982	5	0	0	0	5
46	45	9.4114342642141775	5	0	0	0	5
47	48	14.675488678467865	5	0	0	0	5
50	49	9.4114342642141775	5	0	0	0	5
51	52	28	5	0	0	0	5
54	53	9.4114342642142219	5	0	0	0	5
55	56	14.675488678467934	5	0	0	0	5
58	57	9.4114342642142219	5	0	0	0	5
59	60	27.999999999999982	5	0	0	0	5
62	61	9.4114342642141313	5	0	0	0	5
63	64	14.675488678467909	5	0	0	0	5
66	65	9.4114342642142219	5	0	0	0	5
67	68	27.999999999999982	5	0	0	0	5
70	69	9.4114342642141313	5	0	0	0	5
71	72	14.675488678467865	5	0	0	0	5
74	73	9.4114342642141775	5	0	0	0	5
75	76	28	5	0	0	0	5
78	77	9.4114342642141313	5	0	0	0	5
79	80	14.675488678467865	5	0	0	0	5
82	81	9.4114342642142912	5	0	0	0	5
83	84	28.000000000000021	5	0	0	0	5
86	85	9.4114342642141313	5	0	0	0	5
87	88	14.675488678467865	5	0	0	0	5
90	89	9.4114342642142219	5	0	0	0	5
91	92	28	5	0	0	0	5
94	93	9.4114342642141313	5	0	0	0	5
95	0	14.675488678467909	5	0	0	0	5
96	135	14.228945890682544	5	0	0	1	5
100	99	14.228945890682544	5	0	0	1	5
104	103	14.228945890682473	5	0	0	1	5
108	107	14.228945890682429	5	0	0	1	5
112	111	14.228945890682498	5	0	0	1	5
116	115	14.228945890682498	5	0	0	1	5
120	119	14.228945890682498	5	0	0	1	5
124	123	14.228945890682565	5	0	0	1	5
128	127	14.228945890682544	5	0	0	1	5
132	131	14.228945890682498	5	0	0	1	5
136	137	180	5	0	0	1	5
137	136	180	5	0	0	1	5
234	235	180	1	0	0	0	1
235	234	180	1	0	0	0	1
[NumHoles] = 0
[NumBlockLabels] = 38
2	16	4	-1	0	0	0	1	0
-25	-24	1	-1	0	0	0	1	0
63.961012929223379	2.2335677889602694	2	-1	0	-718	1	1	0
-20.607576408731553	59.542655252838891	2	-1	0	-790	1	1	0
-49.713617188536361	-39.348141837089791	2	-1	0	-862	1	1	0
17.502972094379636	61.040117692084209	2	-1	0	-646	1	1	0
-53.145209113839513	35.123165407553856	2	-1	0	-934	1	1	0
-17.40684592478576	-61.067681427665669	2	-1	0	-1006	1	1	0
22.059954135161941	-59.439704100496833	2	-1	0	-790	1	1	0
52.699805147592826	-35.425845613137277	2	-1	0	-934	1	1	0
49.977116706494826	39.173304758540446	2	-1	0	-862	1	1	0
-63.457827566043029	-2.3160571233107814	2	-1	0	-1078	1	1	0
5.5	40.25	3	-1	1	0	0	100	0
-5.5	39.5	3	-1	1	0	0	-100	0
15.5	38	3	-1	3	0	0	-100	0
25.25	31.75	3	-1	3	0	0	100	0
30.5	24.75	3	-1	2	0	0	-100	0
36.75	14	3	-1	2	0	0	100	0
38.75	5.5	3	-1	1	0	0	-100	0
40	-6	3	-1	1	0	0	100	0
35.75	-14.25	3	-1	3	0	0	-100	0
30	-24.25	3	-1	3	0	0	100	0
24.75	-30.5	3	-1	2	0	0	-100	0
13.75	-35.5	3	-1	2	0	0	100	0
-5.5000000000000053	-40.25	3	-1	1	0	0	100	0
5.4999999999999956	-39.5	3	-1	1	0	0	-100	0
-15.500000000000005	-38	3	-1	3	0	0	-100	0
-25.250000000000004	-31.749999999999996	3	-1	3	0	0	100	0
-30.500000000000004	-24.749999999999996	3	-1	2	0	0	-100	0
-36.75	-13.999999999999995	3	-1	2	0	0	100	0
-38.75	-5.4999999999999956	3	-1	1	0	0	-100	0
-40	6.0000000000000053	3	-1	1	0	0	100	0
-35.75	14.250000000000004	3	-1	3	0	0	-100	0
-29.999999999999996	24.250000000000004	3	-1	3	0	0	100	0
-24.749999999999996	30.500000000000004	3	-1	2	0	0	-100	0
-13.749999999999996	35.5	3	-1	2	0	0	100	0
24.988199641712296	-66.461660968306248	4	-1	0	0	1	1	0
-60	55	1	-1	0	0	0	1	0
